aspirin_decoy_pose1
     RDKit          3D

 21 21  0  0  0  0  0  0  0  0999 V2000
  -12.8370   13.1270   33.8430 C   0  0  0  0  0  0  0  0  0  0  0  0
  -12.1420   14.4540   33.9140 C   0  0  0  0  0  0  0  0  0  0  0  0
  -12.6970   15.5350   33.7660 O   0  0  0  0  0  0  0  0  0  0  0  0
  -10.7870   14.2410   34.1430 O   0  0  0  0  0  0  0  0  0  0  0  0
   -9.9740   14.9470   33.2520 C   0  0  0  0  0  0  0  0  0  0  0  0
   -9.8510   14.4230   31.9610 C   0  0  0  0  0  0  0  0  0  0  0  0
   -9.0340   15.0620   31.0330 C   0  0  0  0  0  0  0  0  0  0  0  0
   -8.3330   16.2120   31.3960 C   0  0  0  0  0  0  0  0  0  0  0  0
   -8.4430   16.7220   32.6940 C   0  0  0  0  0  0  0  0  0  0  0  0
   -9.2610   16.0890   33.6430 C   0  0  0  0  0  0  0  0  0  0  0  0
   -9.3610   16.6100   35.0320 C   0  0  0  0  0  0  0  0  0  0  0  0
   -8.4690   16.6770   35.8580 O   0  0  0  0  0  0  0  0  0  0  0  0
  -10.6010   17.0400   35.3350 O   0  0  0  0  0  0  0  0  0  0  0  0
  -13.0297   12.7591   34.8616 H   0  0  0  0  0  0  0  0  0  0  0  0
  -13.7912   13.2410   33.3077 H   0  0  0  0  0  0  0  0  0  0  0  0
  -12.1999   12.4076   33.3077 H   0  0  0  0  0  0  0  0  0  0  0  0
  -10.3973   13.5104   31.6806 H   0  0  0  0  0  0  0  0  0  0  0  0
   -8.9411   14.6601   30.0133 H   0  0  0  0  0  0  0  0  0  0  0  0
   -7.6921   16.7191   30.6598 H   0  0  0  0  0  0  0  0  0  0  0  0
   -7.8836   17.6270   32.9734 H   0  0  0  0  0  0  0  0  0  0  0  0
  -11.1860   16.3830   34.9030 H   0  0  0  0  0  0  0  0  0  0  0  0
  1  2  1  0
  2  3  2  0
  2  4  1  0
  4  5  1  0
  5  6  2  0
  6  7  1  0
  7  8  2  0
  8  9  1  0
  9 10  2  0
 10 11  1  0
 11 12  2  0
 11 13  1  0
 10  5  1  0
  1 14  1  0
  1 15  1  0
  1 16  1  0
  6 17  1  0
  7 18  1  0
  8 19  1  0
  9 20  1  0
 13 21  1  0
M  END
>  <meeko>  (1) 
{"is_sidechain": false}

>  <vina_affinity>  (1) 
-5.468

>  <vina_rmsd_lb>  (1) 
0.000

>  <vina_rmsd_ub>  (1) 
0.000

>  <docking_backend>  (1) 
python

$$$$
