caffeine_decoy_pose1
     RDKit          3D

 24 25  0  0  0  0  0  0  0  0999 V2000
   -9.2060   16.2440   30.7670 C   0  0  0  0  0  0  0  0  0  0  0  0
  -10.0220   15.9590   31.9320 N   0  0  0  0  0  0  0  0  0  0  0  0
   -9.4560   16.1510   33.1960 C   0  0  0  0  0  0  0  0  0  0  0  0
   -8.3100   16.5450   33.3920 O   0  0  0  0  0  0  0  0  0  0  0  0
  -10.3520   15.8370   34.2530 C   0  0  0  0  0  0  0  0  0  0  0  0
  -11.6250   15.3990   34.0480 C   0  0  0  0  0  0  0  0  0  0  0  0
  -12.2800   15.1690   35.2200 N   0  0  0  0  0  0  0  0  0  0  0  0
  -11.3990   15.4700   36.1520 C   0  0  0  0  0  0  0  0  0  0  0  0
  -10.2090   15.8820   35.6100 N   0  0  0  0  0  0  0  0  0  0  0  0
   -9.0360   16.2850   36.3410 C   0  0  0  0  0  0  0  0  0  0  0  0
  -12.1370   15.2260   32.7840 N   0  0  0  0  0  0  0  0  0  0  0  0
  -13.4980   14.7560   32.6100 C   0  0  0  0  0  0  0  0  0  0  0  0
  -11.3340   15.5060   31.6780 C   0  0  0  0  0  0  0  0  0  0  0  0
  -11.7440   15.3680   30.5220 O   0  0  0  0  0  0  0  0  0  0  0  0
   -8.2134   16.5907   31.0905 H   0  0  0  0  0  0  0  0  0  0  0  0
   -9.0968   15.3308   30.1636 H   0  0  0  0  0  0  0  0  0  0  0  0
   -9.6890   17.0266   30.1636 H   0  0  0  0  0  0  0  0  0  0  0  0
  -11.5941   15.3995   37.2323 H   0  0  0  0  0  0  0  0  0  0  0  0
   -9.2353   16.2165   37.4206 H   0  0  0  0  0  0  0  0  0  0  0  0
   -8.1964   15.6238   36.0804 H   0  0  0  0  0  0  0  0  0  0  0  0
   -8.7801   17.3226   36.0804 H   0  0  0  0  0  0  0  0  0  0  0  0
  -13.9597   14.5966   33.5956 H   0  0  0  0  0  0  0  0  0  0  0  0
  -14.0764   15.5064   32.0512 H   0  0  0  0  0  0  0  0  0  0  0  0
  -13.4901   13.8085   32.0512 H   0  0  0  0  0  0  0  0  0  0  0  0
  1  2  1  0
  2  3  1  0
  3  4  2  0
  3  5  1  0
  5  6  2  0
  6  7  1  0
  7  8  2  0
  8  9  1  0
  9 10  1  0
  6 11  1  0
 11 12  1  0
 11 13  1  0
 13 14  2  0
 13  2  1  0
  9  5  1  0
  1 15  1  0
  1 16  1  0
  1 17  1  0
  8 18  1  0
 10 19  1  0
 10 20  1  0
 10 21  1  0
 12 22  1  0
 12 23  1  0
 12 24  1  0
M  END
>  <meeko>  (1) 
{"is_sidechain": false}

>  <vina_affinity>  (1) 
-5.435

>  <vina_rmsd_lb>  (1) 
0.000

>  <vina_rmsd_ub>  (1) 
0.000

>  <docking_backend>  (1) 
python

$$$$
