xk2_redock_pose1
     RDKit          3D

 84 90  0  0  0  0  0  0  0  0999 V2000
   -9.9790   13.4050   27.8330 O   0  0  0  0  0  0  0  0  0  0  0  0
   -9.5180   14.5240   28.0740 C   0  0  0  0  0  0  0  0  0  0  0  0
   -9.6620   15.1010   29.3340 N   0  0  0  0  0  0  0  0  0  0  0  0
   -8.5890   14.7930   30.2970 C   0  0  0  0  0  0  0  0  0  0  0  0
   -8.9090   15.1950   31.7220 C   0  0  0  0  0  0  0  0  0  0  0  0
   -8.5930   16.4780   32.1830 C   0  0  0  0  0  0  0  0  0  0  0  0
   -8.8660   16.8450   33.5030 C   0  0  0  0  0  0  0  0  0  0  0  0
   -9.4680   15.9410   34.3910 C   0  0  0  0  0  0  0  0  0  0  0  0
   -9.7450   16.2920   35.7220 C   0  0  0  0  0  0  0  0  0  0  0  0
  -10.3480   15.3800   36.5890 C   0  0  0  0  0  0  0  0  0  0  0  0
  -10.6820   14.1070   36.1370 C   0  0  0  0  0  0  0  0  0  0  0  0
  -10.4130   13.7420   34.8180 C   0  0  0  0  0  0  0  0  0  0  0  0
   -9.8050   14.6480   33.9330 C   0  0  0  0  0  0  0  0  0  0  0  0
   -9.5260   14.2940   32.6030 C   0  0  0  0  0  0  0  0  0  0  0  0
  -10.5600   16.2430   29.7010 C   0  0  2  0  0  0  0  0  0  0  0  0
  -12.0710   15.8650   29.6940 C   0  0  0  0  0  0  0  0  0  0  0  0
  -12.4720   14.8080   30.7010 C   0  0  0  0  0  0  0  0  0  0  0  0
  -12.9470   15.1780   31.9670 C   0  0  0  0  0  0  0  0  0  0  0  0
  -13.3270   14.2060   32.8950 C   0  0  0  0  0  0  0  0  0  0  0  0
  -13.2430   12.8560   32.5630 C   0  0  0  0  0  0  0  0  0  0  0  0
  -12.7880   12.4760   31.3030 C   0  0  0  0  0  0  0  0  0  0  0  0
  -12.4090   13.4470   30.3730 C   0  0  0  0  0  0  0  0  0  0  0  0
  -10.2680   17.5580   28.9400 C   0  0  2  0  0  0  0  0  0  0  0  0
  -11.3460   18.5010   29.1120 O   0  0  0  0  0  0  0  0  0  0  0  0
  -10.0680   17.3610   27.4030 C   0  0  1  0  0  0  0  0  0  0  0  0
  -10.2150   18.6330   26.7540 O   0  0  0  0  0  0  0  0  0  0  0  0
   -8.7240   16.6890   27.0720 C   0  0  1  0  0  0  0  0  0  0  0  0
   -7.5400   17.2680   27.8830 C   0  0  0  0  0  0  0  0  0  0  0  0
   -6.2470   17.3010   27.0980 C   0  0  0  0  0  0  0  0  0  0  0  0
   -5.0370   16.9460   27.7080 C   0  0  0  0  0  0  0  0  0  0  0  0
   -3.8410   17.0010   26.9910 C   0  0  0  0  0  0  0  0  0  0  0  0
   -3.8440   17.4100   25.6590 C   0  0  0  0  0  0  0  0  0  0  0  0
   -5.0420   17.7650   25.0430 C   0  0  0  0  0  0  0  0  0  0  0  0
   -6.2390   17.7120   25.7570 C   0  0  0  0  0  0  0  0  0  0  0  0
   -8.8320   15.2120   27.0880 N   0  0  0  0  0  0  0  0  0  0  0  0
   -8.2540   14.4110   26.0000 C   0  0  0  0  0  0  0  0  0  0  0  0
   -8.5850   14.9650   24.6300 C   0  0  0  0  0  0  0  0  0  0  0  0
   -9.9060   15.2690   24.2820 C   0  0  0  0  0  0  0  0  0  0  0  0
  -10.2160   15.7460   23.0060 C   0  0  0  0  0  0  0  0  0  0  0  0
   -9.2100   15.9350   22.0480 C   0  0  0  0  0  0  0  0  0  0  0  0
   -9.5040   16.4070   20.7590 C   0  0  0  0  0  0  0  0  0  0  0  0
   -8.4900   16.5870   19.8170 C   0  0  0  0  0  0  0  0  0  0  0  0
   -7.1710   16.2950   20.1510 C   0  0  0  0  0  0  0  0  0  0  0  0
   -6.8620   15.8260   21.4280 C   0  0  0  0  0  0  0  0  0  0  0  0
   -7.8700   15.6410   22.3890 C   0  0  0  0  0  0  0  0  0  0  0  0
   -7.5750   15.1660   23.6770 C   0  0  0  0  0  0  0  0  0  0  0  0
   -8.4056   13.7086   30.2760 H   0  0  0  0  0  0  0  0  0  0  0  0
   -7.7082   15.3764   29.9909 H   0  0  0  0  0  0  0  0  0  0  0  0
   -8.1259   17.2033   31.5005 H   0  0  0  0  0  0  0  0  0  0  0  0
   -8.6056   17.8557   33.8505 H   0  0  0  0  0  0  0  0  0  0  0  0
   -9.4838   17.2969   36.0852 H   0  0  0  0  0  0  0  0  0  0  0  0
  -10.5593   15.6673   37.6296 H   0  0  0  0  0  0  0  0  0  0  0  0
  -11.1583   13.3884   36.8201 H   0  0  0  0  0  0  0  0  0  0  0  0
  -10.6797   12.7342   34.4670 H   0  0  0  0  0  0  0  0  0  0  0  0
   -9.7967   13.2899   32.2446 H   0  0  0  0  0  0  0  0  0  0  0  0
  -10.3029   16.4617   30.7479 H   0  0  0  0  0  0  0  0  0  0  0  0
  -12.6512   16.7752   29.9057 H   0  0  0  0  0  0  0  0  0  0  0  0
  -12.2756   15.4368   28.7016 H   0  0  0  0  0  0  0  0  0  0  0  0
  -13.0210   16.2431   32.2317 H   0  0  0  0  0  0  0  0  0  0  0  0
  -13.6926   14.5066   33.8880 H   0  0  0  0  0  0  0  0  0  0  0  0
  -13.5361   12.0900   33.2961 H   0  0  0  0  0  0  0  0  0  0  0  0
  -12.7269   11.4097   31.0396 H   0  0  0  0  0  0  0  0  0  0  0  0
  -12.0586   13.1411   29.3762 H   0  0  0  0  0  0  0  0  0  0  0  0
   -9.3288   17.9327   29.3731 H   0  0  0  0  0  0  0  0  0  0  0  0
  -12.0830   18.1830   28.5580 H   0  0  0  0  0  0  0  0  0  0  0  0
  -10.8376   16.6724   27.0242 H   0  0  0  0  0  0  0  0  0  0  0  0
  -11.0880   18.5940   26.3150 H   0  0  0  0  0  0  0  0  0  0  0  0
   -8.4727   16.9473   26.0327 H   0  0  0  0  0  0  0  0  0  0  0  0
   -7.7920   18.2947   28.1871 H   0  0  0  0  0  0  0  0  0  0  0  0
   -7.3820   16.6104   28.7505 H   0  0  0  0  0  0  0  0  0  0  0  0
   -5.0295   16.6217   28.7591 H   0  0  0  0  0  0  0  0  0  0  0  0
   -2.8951   16.7212   27.4778 H   0  0  0  0  0  0  0  0  0  0  0  0
   -2.9010   17.4525   25.0942 H   0  0  0  0  0  0  0  0  0  0  0  0
   -5.0439   18.0877   23.9914 H   0  0  0  0  0  0  0  0  0  0  0  0
   -7.1819   17.9941   25.2657 H   0  0  0  0  0  0  0  0  0  0  0  0
   -7.1605   14.3933   26.1181 H   0  0  0  0  0  0  0  0  0  0  0  0
   -8.6853   13.4011   26.0642 H   0  0  0  0  0  0  0  0  0  0  0  0
  -10.7089   15.1309   25.0211 H   0  0  0  0  0  0  0  0  0  0  0  0
  -11.2609   15.9758   22.7502 H   0  0  0  0  0  0  0  0  0  0  0  0
  -10.5450   16.6375   20.4884 H   0  0  0  0  0  0  0  0  0  0  0  0
   -8.7333   16.9595   18.8110 H   0  0  0  0  0  0  0  0  0  0  0  0
   -6.3719   16.4340   19.4080 H   0  0  0  0  0  0  0  0  0  0  0  0
   -5.8171   15.5984   21.6855 H   0  0  0  0  0  0  0  0  0  0  0  0
   -6.5307   14.9470   23.9444 H   0  0  0  0  0  0  0  0  0  0  0  0
  1  2  2  0
  2  3  1  0
  3  4  1  0
  4  5  1  0
  5  6  2  0
  6  7  1  0
  7  8  2  0
  8  9  1  0
  9 10  2  0
 10 11  1  0
 11 12  2  0
 12 13  1  0
 13 14  2  0
  3 15  1  0
 15 16  1  0
 16 17  1  0
 17 18  2  0
 18 19  1  0
 19 20  2  0
 20 21  1  0
 21 22  2  0
 15 23  1  0
 23 24  1  0
 23 25  1  0
 25 26  1  0
 25 27  1  0
 27 28  1  0
 28 29  1  0
 29 30  2  0
 30 31  1  0
 31 32  2  0
 32 33  1  0
 33 34  2  0
 27 35  1  0
 35 36  1  0
 36 37  1  0
 37 38  2  0
 38 39  1  0
 39 40  2  0
 40 41  1  0
 41 42  2  0
 42 43  1  0
 43 44  2  0
 44 45  1  0
 45 46  2  0
 35  2  1  0
 46 37  1  0
 14  5  1  0
 22 17  1  0
 34 29  1  0
 45 40  1  0
 13  8  1  0
  4 47  1  0
  4 48  1  0
  6 49  1  0
  7 50  1  0
  9 51  1  0
 10 52  1  0
 11 53  1  0
 12 54  1  0
 14 55  1  0
 15 56  1  1
 16 57  1  0
 16 58  1  0
 18 59  1  0
 19 60  1  0
 20 61  1  0
 21 62  1  0
 22 63  1  0
 23 64  1  1
 24 65  1  0
 25 66  1  6
 26 67  1  0
 27 68  1  6
 28 69  1  0
 28 70  1  0
 30 71  1  0
 31 72  1  0
 32 73  1  0
 33 74  1  0
 34 75  1  0
 36 76  1  0
 36 77  1  0
 38 78  1  0
 39 79  1  0
 41 80  1  0
 42 81  1  0
 43 82  1  0
 44 83  1  0
 46 84  1  0
M  END
>  <meeko>  (1) 
{"is_sidechain": false}

>  <vina_affinity>  (1) 
-11.129

>  <vina_rmsd_lb>  (1) 
0.000

>  <vina_rmsd_ub>  (1) 
0.000

>  <crystal_rmsd>  (1) 
0.836

>  <docking_backend>  (1) 
python

$$$$
