
     RDKit          3D

 24 25  0  0  0  0  0  0  0  0999 V2000
    3.3283   -0.0785   -0.1528 C   0  0  0  0  0  0  0  0  0  0  0  0
    2.0355   -0.7133   -0.1098 N   0  0  0  0  0  0  0  0  0  0  0  0
    1.7952   -2.0618   -0.1322 C   0  0  0  0  0  0  0  0  0  0  0  0
    0.5047   -2.3266   -0.0802 N   0  0  0  0  0  0  0  0  0  0  0  0
   -0.0903   -1.1025   -0.0231 C   0  0  0  0  0  0  0  0  0  0  0  0
    0.8220   -0.0916   -0.0395 C   0  0  0  0  0  0  0  0  0  0  0  0
    0.4630    1.2825    0.0106 C   0  0  0  0  0  0  0  0  0  0  0  0
    1.2934    2.1862   -0.0047 O   0  0  0  0  0  0  0  0  0  0  0  0
   -0.9195    1.4784    0.0781 N   0  0  0  0  0  0  0  0  0  0  0  0
   -1.4149    2.8397    0.1341 C   0  0  0  0  0  0  0  0  0  0  0  0
   -1.8949    0.4591    0.0972 C   0  0  0  0  0  0  0  0  0  0  0  0
   -3.0973    0.7332    0.1584 O   0  0  0  0  0  0  0  0  0  0  0  0
   -1.4407   -0.8591    0.0441 N   0  0  0  0  0  0  0  0  0  0  0  0
   -2.3793   -1.9661    0.0594 C   0  0  0  0  0  0  0  0  0  0  0  0
    3.4557    0.5136    0.7568 H   0  0  0  0  0  0  0  0  0  0  0  0
    3.3743    0.5579   -1.0399 H   0  0  0  0  0  0  0  0  0  0  0  0
    4.1080   -0.8426   -0.2069 H   0  0  0  0  0  0  0  0  0  0  0  0
    2.5859   -2.7997   -0.1862 H   0  0  0  0  0  0  0  0  0  0  0  0
   -0.6120    3.5808    0.1160 H   0  0  0  0  0  0  0  0  0  0  0  0
   -1.9964    2.9691    1.0529 H   0  0  0  0  0  0  0  0  0  0  0  0
   -2.0767    3.0128   -0.7209 H   0  0  0  0  0  0  0  0  0  0  0  0
   -3.4153   -1.6218    0.1148 H   0  0  0  0  0  0  0  0  0  0  0  0
   -2.2548   -2.5528   -0.8563 H   0  0  0  0  0  0  0  0  0  0  0  0
   -2.1739   -2.5968    0.9301 H   0  0  0  0  0  0  0  0  0  0  0  0
  1  2  1  0
  2  3  1  0
  3  4  2  0
  4  5  1  0
  5  6  2  0
  6  7  1  0
  7  8  2  0
  7  9  1  0
  9 10  1  0
  9 11  1  0
 11 12  2  0
 11 13  1  0
 13 14  1  0
  6  2  1  0
 13  5  1  0
  1 15  1  0
  1 16  1  0
  1 17  1  0
  3 18  1  0
 10 19  1  0
 10 20  1  0
 10 21  1  0
 14 22  1  0
 14 23  1  0
 14 24  1  0
M  END
$$$$
