XK2
     RDKit          3D

 84 90  0  0  1  0  0  0  0  0999 V2000
   -0.1345   -1.9914   -0.0959 C   0  0  0  0  0  0  0  0  0  0  0  0
   -0.3024   -2.9187    0.7011 O   0  0  0  0  0  0  0  0  0  0  0  0
   -1.1699   -1.1093   -0.3947 N   0  0  0  0  0  0  0  0  0  0  0  0
   -2.4837   -1.4622    0.1727 C   0  0  0  0  0  0  0  0  0  0  0  0
   -1.0363    0.2918   -0.9076 C   0  0  1  0  0  0  0  0  0  0  0  0
    0.3887    0.8843   -0.7913 C   0  0  2  0  0  0  0  0  0  0  0  0
    0.3558    2.3230   -0.8843 O   0  0  0  0  0  0  0  0  0  0  0  0
    1.3404    0.3739   -1.8784 C   0  0  1  0  0  0  0  0  0  0  0  0
    2.6688    0.8351   -1.5907 O   0  0  0  0  0  0  0  0  0  0  0  0
    1.2693   -1.1580   -2.0083 C   0  0  2  0  0  0  0  0  0  0  0  0
    1.1029   -1.8106   -0.6902 N   0  0  0  0  0  0  0  0  0  0  0  0
    2.2672   -2.3573    0.0234 C   0  0  0  0  0  0  0  0  0  0  0  0
   -2.8476   -0.6721    1.4127 C   0  0  0  0  0  0  0  0  0  0  0  0
   -3.9740    0.1592    1.4181 C   0  0  0  0  0  0  0  0  0  0  0  0
   -4.3004    0.9075    2.5517 C   0  0  0  0  0  0  0  0  0  0  0  0
   -3.5119    0.8369    3.7097 C   0  0  0  0  0  0  0  0  0  0  0  0
   -3.8230    1.5852    4.8567 C   0  0  0  0  0  0  0  0  0  0  0  0
   -3.0286    1.4995    6.0014 C   0  0  0  0  0  0  0  0  0  0  0  0
   -1.9152    0.6644    6.0145 C   0  0  0  0  0  0  0  0  0  0  0  0
   -1.5934   -0.0860    4.8826 C   0  0  0  0  0  0  0  0  0  0  0  0
   -2.3810   -0.0092    3.7228 C   0  0  0  0  0  0  0  0  0  0  0  0
   -2.0672   -0.7562    2.5756 C   0  0  0  0  0  0  0  0  0  0  0  0
   -1.6577    0.4917   -2.3219 C   0  0  0  0  0  0  0  0  0  0  0  0
   -3.1218    0.8789   -2.3294 C   0  0  0  0  0  0  0  0  0  0  0  0
   -3.5303    2.1214   -1.8228 C   0  0  0  0  0  0  0  0  0  0  0  0
   -4.8777    2.4847   -1.8368 C   0  0  0  0  0  0  0  0  0  0  0  0
   -5.8293    1.6148   -2.3648 C   0  0  0  0  0  0  0  0  0  0  0  0
   -5.4335    0.3845   -2.8858 C   0  0  0  0  0  0  0  0  0  0  0  0
   -4.0861    0.0201   -2.8742 C   0  0  0  0  0  0  0  0  0  0  0  0
    2.3936   -1.7443   -2.8944 C   0  0  0  0  0  0  0  0  0  0  0  0
    2.2557   -1.3627   -4.3517 C   0  0  0  0  0  0  0  0  0  0  0  0
    3.0025   -0.3028   -4.8824 C   0  0  0  0  0  0  0  0  0  0  0  0
    2.8565    0.0642   -6.2206 C   0  0  0  0  0  0  0  0  0  0  0  0
    1.9639   -0.6241   -7.0400 C   0  0  0  0  0  0  0  0  0  0  0  0
    1.2165   -1.6803   -6.5225 C   0  0  0  0  0  0  0  0  0  0  0  0
    1.3603   -2.0486   -5.1842 C   0  0  0  0  0  0  0  0  0  0  0  0
    2.7554   -1.4423    1.1258 C   0  0  0  0  0  0  0  0  0  0  0  0
    3.8137   -0.5512    0.9000 C   0  0  0  0  0  0  0  0  0  0  0  0
    4.2517    0.3334    1.9001 C   0  0  0  0  0  0  0  0  0  0  0  0
    5.3006    1.2377    1.6681 C   0  0  0  0  0  0  0  0  0  0  0  0
    5.7233    2.1128    2.6699 C   0  0  0  0  0  0  0  0  0  0  0  0
    5.1029    2.0954    3.9156 C   0  0  0  0  0  0  0  0  0  0  0  0
    4.0579    1.2033    4.1618 C   0  0  0  0  0  0  0  0  0  0  0  0
    3.6210    0.3172    3.1638 C   0  0  0  0  0  0  0  0  0  0  0  0
    2.5714   -0.5839    3.3928 C   0  0  0  0  0  0  0  0  0  0  0  0
    2.1449   -1.4526    2.3858 C   0  0  0  0  0  0  0  0  0  0  0  0
   -3.2320   -1.3140   -0.6091 H   0  0  0  0  0  0  0  0  0  0  0  0
   -2.5393   -2.5302    0.4154 H   0  0  0  0  0  0  0  0  0  0  0  0
   -1.6174    0.9108   -0.2139 H   0  0  0  0  0  0  0  0  0  0  0  0
    0.8054    0.6768    0.2014 H   0  0  0  0  0  0  0  0  0  0  0  0
   -0.0270    2.6457   -0.0466 H   0  0  0  0  0  0  0  0  0  0  0  0
    1.0902    0.8337   -2.8411 H   0  0  0  0  0  0  0  0  0  0  0  0
    2.5608    1.7702   -1.3248 H   0  0  0  0  0  0  0  0  0  0  0  0
    0.3365   -1.3933   -2.5326 H   0  0  0  0  0  0  0  0  0  0  0  0
    2.0039   -3.3261    0.4665 H   0  0  0  0  0  0  0  0  0  0  0  0
    3.0863   -2.5810   -0.6637 H   0  0  0  0  0  0  0  0  0  0  0  0
   -4.6055    0.2378    0.5353 H   0  0  0  0  0  0  0  0  0  0  0  0
   -5.1791    1.5478    2.5223 H   0  0  0  0  0  0  0  0  0  0  0  0
   -4.6908    2.2406    4.8666 H   0  0  0  0  0  0  0  0  0  0  0  0
   -3.2817    2.0828    6.8827 H   0  0  0  0  0  0  0  0  0  0  0  0
   -1.2977    0.5939    6.9059 H   0  0  0  0  0  0  0  0  0  0  0  0
   -0.7220   -0.7362    4.9106 H   0  0  0  0  0  0  0  0  0  0  0  0
   -1.2012   -1.4153    2.5862 H   0  0  0  0  0  0  0  0  0  0  0  0
   -1.1391    1.2951   -2.8600 H   0  0  0  0  0  0  0  0  0  0  0  0
   -1.5240   -0.4117   -2.9274 H   0  0  0  0  0  0  0  0  0  0  0  0
   -2.7992    2.8184   -1.4184 H   0  0  0  0  0  0  0  0  0  0  0  0
   -5.1837    3.4496   -1.4408 H   0  0  0  0  0  0  0  0  0  0  0  0
   -6.8782    1.8992   -2.3788 H   0  0  0  0  0  0  0  0  0  0  0  0
   -6.1745   -0.2903   -3.3068 H   0  0  0  0  0  0  0  0  0  0  0  0
   -3.7958   -0.9420   -3.2908 H   0  0  0  0  0  0  0  0  0  0  0  0
    3.3851   -1.4478   -2.5310 H   0  0  0  0  0  0  0  0  0  0  0  0
    2.3739   -2.8413   -2.8381 H   0  0  0  0  0  0  0  0  0  0  0  0
    3.6983    0.2481   -4.2519 H   0  0  0  0  0  0  0  0  0  0  0  0
    3.4395    0.8885   -6.6231 H   0  0  0  0  0  0  0  0  0  0  0  0
    1.8522   -0.3380   -8.0825 H   0  0  0  0  0  0  0  0  0  0  0  0
    0.5225   -2.2187   -7.1626 H   0  0  0  0  0  0  0  0  0  0  0  0
    0.7713   -2.8768   -4.7959 H   0  0  0  0  0  0  0  0  0  0  0  0
    4.2933   -0.5331   -0.0774 H   0  0  0  0  0  0  0  0  0  0  0  0
    5.7955    1.2660    0.6998 H   0  0  0  0  0  0  0  0  0  0  0  0
    6.5370    2.8067    2.4762 H   0  0  0  0  0  0  0  0  0  0  0  0
    5.4313    2.7755    4.6970 H   0  0  0  0  0  0  0  0  0  0  0  0
    3.5846    1.2043    5.1410 H   0  0  0  0  0  0  0  0  0  0  0  0
    2.0742   -0.6156    4.3591 H   0  0  0  0  0  0  0  0  0  0  0  0
    1.3271   -2.1411    2.5907 H   0  0  0  0  0  0  0  0  0  0  0  0
  1  2  2  0
  1  3  1  0
  1 11  1  0
  3  4  1  0
  3  5  1  0
  4 13  1  0
  4 47  1  0
  4 48  1  0
  5  6  1  0
  5 23  1  0
  5 49  1  1
  6  7  1  0
  6  8  1  0
  6 50  1  1
  7 51  1  0
  8  9  1  0
  8 10  1  0
  8 52  1  6
  9 53  1  0
 10 11  1  0
 10 30  1  0
 10 54  1  6
 11 12  1  0
 12 37  1  0
 12 55  1  0
 12 56  1  0
 13 14  2  0
 13 22  1  0
 14 15  1  0
 14 57  1  0
 15 16  2  0
 15 58  1  0
 16 17  1  0
 16 21  1  0
 17 18  2  0
 17 59  1  0
 18 19  1  0
 18 60  1  0
 19 20  2  0
 19 61  1  0
 20 21  1  0
 20 62  1  0
 21 22  2  0
 22 63  1  0
 23 24  1  0
 23 64  1  0
 23 65  1  0
 24 25  2  0
 24 29  1  0
 25 26  1  0
 25 66  1  0
 26 27  2  0
 26 67  1  0
 27 28  1  0
 27 68  1  0
 28 29  2  0
 28 69  1  0
 29 70  1  0
 30 31  1  0
 30 71  1  0
 30 72  1  0
 31 32  2  0
 31 36  1  0
 32 33  1  0
 32 73  1  0
 33 34  2  0
 33 74  1  0
 34 35  1  0
 34 75  1  0
 35 36  2  0
 35 76  1  0
 36 77  1  0
 37 38  2  0
 37 46  1  0
 38 39  1  0
 38 78  1  0
 39 40  2  0
 39 44  1  0
 40 41  1  0
 40 79  1  0
 41 42  2  0
 41 80  1  0
 42 43  1  0
 42 81  1  0
 43 44  2  0
 43 82  1  0
 44 45  1  0
 45 46  2  0
 45 83  1  0
 46 84  1  0
M  END
$$$$
